Version 4.1
SHEET 1 3388 1124
WIRE 2144 -368 1968 -368
WIRE 2368 -368 2144 -368
WIRE 2368 -304 2368 -368
WIRE 496 -192 96 -192
WIRE 880 -192 496 -192
WIRE 96 -160 96 -192
WIRE 880 -128 880 -192
WIRE 496 -96 496 -192
WIRE 1968 -64 1968 -368
WIRE 1952 -16 1104 -16
WIRE 2272 -16 2048 -16
WIRE 3008 -16 2944 -16
WIRE 3200 -16 3008 -16
WIRE 3280 -16 3200 -16
WIRE 3296 -16 3280 -16
WIRE 960 0 640 0
WIRE 1104 0 1104 -16
WIRE 1104 0 960 0
WIRE 2272 0 2272 -16
WIRE 2528 0 2272 0
WIRE 2656 0 2528 0
WIRE 960 32 960 0
WIRE 3008 48 3008 -16
WIRE 3008 48 2944 48
WIRE 96 64 96 -80
WIRE 1104 96 1104 0
WIRE 2528 96 2528 64
WIRE 2544 96 2528 96
WIRE 2656 96 2544 96
WIRE 3008 112 2944 112
WIRE 2544 128 2544 96
WIRE 960 176 960 112
WIRE 752 192 640 192
WIRE 752 224 752 192
WIRE 960 224 960 176
WIRE 2800 240 2800 160
WIRE 1104 256 1104 176
WIRE 496 384 496 288
WIRE 752 384 752 304
WIRE 752 384 496 384
WIRE 496 400 496 384
FLAG 880 -64 0
FLAG 496 400 0
FLAG 96 64 0
FLAG 1104 256 0
FLAG 960 304 0
FLAG 960 176 BAT_act
FLAG 2368 -224 0
FLAG 2144 -288 0
FLAG 2800 240 0
FLAG 3200 48 0
FLAG 2544 128 0
FLAG 3280 64 0
SYMBOL voltage 96 -176 R0
WINDOW 123 0 0 Left 0
WINDOW 39 0 0 Left 0
SYMATTR InstName J111
SYMATTR Value 5
SYMBOL PowerProducts\\LTC4054-4.2 496 96 R0
SYMATTR InstName U1
SYMBOL cap 864 -128 R0
SYMATTR InstName C115
SYMATTR Value 1µ
SYMBOL res 736 208 R0
SYMATTR InstName R116
SYMATTR Value 2k
SYMBOL Misc\\battery 1104 80 R0
WINDOW 123 0 0 Left 0
WINDOW 39 24 132 Left 2
SYMATTR InstName BT130
SYMATTR Value PWL(0 3.4 3000 4.3 30k 2.7)
SYMATTR SpiceLine Rser=0.1
SYMBOL res 944 16 R0
SYMATTR InstName R131
SYMATTR Value 100k
SYMBOL res 944 208 R0
SYMATTR InstName R132
SYMATTR Value 330k
SYMBOL pmos 2048 -64 R90
SYMATTR InstName M1
SYMATTR Value IRLML6402
SYMBOL voltage 2368 -320 R0
WINDOW 123 0 0 Left 0
WINDOW 39 0 0 Left 0
SYMATTR InstName V1
SYMATTR Value PWL(0 0 18k 0 20k 3.3)
SYMBOL res 2128 -384 R0
SYMATTR InstName R3
SYMATTR Value 47k
SYMBOL PowerProducts\\LT1763-3.3 2800 48 R0
SYMATTR InstName U2
SYMBOL cap 2512 0 R0
SYMATTR InstName C1
SYMATTR Value 1µ
SYMBOL cap 2992 48 R0
SYMATTR InstName C2
SYMATTR Value 0.01µ
SYMBOL cap 3184 -16 R0
SYMATTR InstName C3
SYMATTR Value 10µ
SYMBOL res 3264 -32 R0
SYMATTR InstName R1
SYMATTR Value 50
TEXT -24 552 Left 2 !.tran 36000
